493
x y z
  H       4.755162     -1.003886     23.477489
  H       7.188822      2.987449     23.504245
  H       5.562981     -3.420502     23.335969
  H      -3.719606      4.115012     23.264568
  H      -1.238212      8.153534     23.361980
  H       9.694255      3.470257     23.371604
  H       5.498527      7.035964     23.289556
  H       0.337397     -1.417550     23.344035
  H       3.156778      8.470036     23.259472
  H      -2.005949      0.009409     23.309267
  H      -1.917773     10.607451     23.179509
  H      -6.220333      3.664191     23.036465
  C       4.146090     -1.770662     22.953253
  C       4.499401      6.698093     22.956196
  C       4.586434     -3.127127     22.890068
  C       0.180804     -0.379537     22.995538
  C       3.316105      7.422865     22.941106
  C       7.564070      3.874778     22.950098
  C      -1.004801      0.342170     22.976939
  C       8.962513      4.156429     22.888863
  H     -10.255206      2.035537     22.849338
  C      -4.080705      3.192478     22.762803
  H      -2.658899     14.875150     22.815431
  C      -0.591035      8.877838     22.822069
  H      13.862357      4.120854     22.625526
  H       5.423599     -7.975647     22.605738
  C      -0.957971     10.255534     22.738788
  C      -5.478167      2.922561     22.664955
  H       7.108081     -7.299800     22.280301
  H      13.505584      5.839502     22.028489
  C       4.182764      5.361254     22.444499
  O       5.615513     -5.784048     22.403390
  C       1.222747      0.504578     22.465802
  C       2.278096      6.526971     22.421687
  C      -0.685792      1.666057     22.432125
  O      11.771729      4.519079     22.408061
  C       2.939490     -1.354365     22.287640
  O      -1.837526     12.951373     22.256015
  C       6.618128      4.704979     22.251152
  H      -1.339254     14.957957     21.514451
  C       3.783705     -4.112177     22.225444
  C       6.015647     -7.207946     22.038825
  C       2.564371      0.121013     22.212614
  N       2.802289      5.240289     22.190502
  N       0.697678      1.784250     22.195473
  C       5.138027      4.343024     22.198542
  C      -3.115772      2.312301     22.159527
  C       0.594299      8.393657     22.163753
  C       9.434199      5.306589     22.168922
  C      13.210282      4.755250     21.967632
  C      -1.636898      2.677540     22.136165
  C       0.939892      6.908021     22.143028
  Fe      1.751351      3.512404     21.960168
  C      -2.225422     14.382594     21.905380
  C      -5.933579      1.707695     22.052511
  C      -0.104447     11.191084     22.061677
  C       4.224316     -5.579440     22.036933
  O      -8.255037      2.545726     22.135252
  N       3.458744      2.472563     22.054048
  N       0.044217      4.553997     22.011870
  C      10.932415      5.622285     21.969898
  C       3.592849      1.064745     21.902028
  C       4.773430      2.993070     21.906132
  C      -7.431463      1.370766     21.893327
  C      -0.455837     12.683055     21.884186
  C      -0.089950      5.961732     21.850801
  C      -1.266471      4.026169     21.835792
  C      -9.725366      2.242774     21.882496
  C       2.123631     -2.358325     21.655082
  C       2.526178     -3.725387     21.651691
  O      -7.881529      0.211781     21.565762
  C       7.099613      5.874598     21.564801
  O       3.459927     -6.503230     21.571724
  C       4.953197      0.733382     21.538096
  C       8.489847      6.185752     21.541258
  C       5.690111      1.933374     21.548206
  C      -3.585816      1.094442     21.548127
  C       1.445183      9.341267     21.491014
  C      -4.973900      0.773942     21.536728
  O      11.374137      6.713815     21.453404
  H     -10.167242      3.163703     21.410475
  C      -1.445445      6.288192     21.469926
  C      -2.175582      5.084194     21.455304
  C       1.115755     10.727215     21.467018
  O       0.368741     13.564817     21.440574
  H       5.324213     -0.270214     21.250529
  H       6.753621      2.059644     21.262309
  H      -1.820093      7.288239     21.172852
  H      -3.233393      4.958538     21.150012
  H       5.877162     -7.397081     20.936401
  H      -9.855707      1.367554     21.185558
  H       1.201988     -2.048588     21.112238
  H       1.904288     -4.491862     21.130697
  H      13.343864      4.409960     20.902587
  H       6.371999      6.497009     20.997679
  H       8.859269      7.067743     20.963956
  H      -2.856439      0.428665     21.032806
  H      -3.019515     14.347533     21.105197
  H      -5.329632     -0.165256     21.049106
  H       2.334958      8.965351     20.935108
  H       1.765051     11.448621     20.913593
  C      -6.192099      8.584666     18.960779
  C      -4.953313      7.868379     18.864466
  C      -7.434005      7.868412     18.977838
  C      -7.433112      6.435071     18.945120
  C      -6.193318      5.720311     18.853525
  C      -4.955606      6.438185     18.783962
  C      -6.192177     10.017835     18.929287
  C      -3.716306      8.582866     18.754873
  C      -8.673813      5.719362     18.897625
  C      -8.674857      8.585135     18.917946
  C      -3.712409     10.013997     18.792269
  C      -4.951044     10.731922     18.866132
  C      -6.194524      4.291083     18.749323
  C      -3.724736      5.727713     18.595393
  C      -8.672921      4.289084     18.814407
  C      -2.485208      7.870638     18.572319
  C      -7.433169      3.574175     18.754361
  C      -7.433078     10.733258     18.864198
  C      -9.914079      6.436365     18.848113
  C       6.195125     -0.000515     18.573504
  C       4.955533     -0.715160     18.550847
  C      -8.673072     10.016043     18.838331
  C      -2.488387      6.441911     18.498550
  C      -9.913567      7.868632     18.838969
  C      -4.959068      3.579819     18.597879
  C       6.192358      1.429376     18.527019
  C      -3.724071      4.297667     18.518905
  C       4.955585     -2.145748     18.579186
  C       3.715837      0.001288     18.516464
  C       7.433003     -0.715830     18.640061
  C      -2.475444     10.727325     18.673388
  C      -4.952123     12.161741     18.778580
  C       4.951801      2.146827     18.525932
  C       7.431752      2.143749     18.529110
  C       3.712907      1.431834     18.532701
  C      -9.909985      3.575296     18.714030
  C       3.716169     -2.859171     18.552699
  C       6.194557     -2.862577     18.619944
  C      -1.246678      8.584233     18.473318
  C       2.477341     -0.712738     18.462633
  C      -7.432025      2.147203     18.626111
  C       7.433459     -2.147273     18.654195
  C      -1.241587     10.013288     18.531151
  C       8.672636     -0.000588     18.650261
  C       2.478276     -2.143211     18.486795
  C       8.671108      1.429016     18.590333
  C      -7.431749     12.160401     18.735320
  C     -11.149788      5.721605     18.725147
  C       7.430741      3.574493     18.476951
  C      -1.248567      5.726438     18.417641
  C      -2.474519     12.158830     18.659358
  C       3.715727     -4.289565     18.549420
  C      -4.957711      2.151916     18.498537
  C      -9.908510      2.147499     18.602778
  C       4.951499      3.576979     18.491332
  C     -11.149077      4.290702     18.681523
  C      -8.670418      1.431799     18.577920
  C      -6.192043     12.876066     18.712476
  C       2.473132      2.147171     18.498870
  C      -2.485955      3.582951     18.413853
  C      -3.713623     12.875788     18.694268
  C      -6.195105      1.435420     18.514546
  C       1.237465      0.002892     18.416882
  C     -11.147042      8.581705     18.681893
  C       6.191502      4.289416     18.434685
  C      -9.907176     10.727064     18.674980
  C       6.194373     -4.293031     18.590776
  C       1.238846     -2.858219     18.459792
  C      -1.245984      4.296242     18.415020
  C      -0.010385      7.869073     18.360326
  C       2.476789     -5.005450     18.523358
  C       4.954255     -5.006223     18.557058
  C       1.235348      1.433572     18.437482
  C       8.669471      4.289396     18.463900
  C       1.237917     -4.289157     18.496543
  C       9.909697      2.144954     18.569928
  C      -0.008902      6.439135     18.385129
  C       8.672959     -2.863293     18.644504
  C       2.472205      3.579439     18.494115
  C       9.912360     -0.716426     18.648568
  C      -0.005420     10.726586     18.414508
  C       3.712036      4.293869     18.479302
  C       9.908256      3.574479     18.503113
  C      -2.482801      2.152989     18.358936
  C      -3.721403      1.438278     18.381104
  C     -11.144110     10.010523     18.598912
  C      -0.006347      3.579497     18.417771
  C      -1.237915     12.871476     18.550455
  C      -0.000119     -2.142377     18.420863
  C      -0.001277     -0.711627     18.378903
  C       1.232804      4.294672     18.445549
  C      -0.003788      2.149652     18.395528
  C      -0.000666     -5.004238     18.519690
  C     -11.145661      1.431912     18.528437
  C       2.476943     -6.436234     18.532893
  C      -8.670844      0.003076     18.491237
  C     -12.384499      6.436150     18.601143
  C       6.190575      5.718571     18.365742
  C      -8.667190     12.870539     18.586091
  C       1.231787      5.723920     18.404971
  C       9.912362     -2.147625     18.631151
  C      -0.002527     12.155680     18.444925
  C       8.669743      5.718244     18.389752
  C       1.229425      8.581188     18.293989
  C      -0.000340     -6.435121     18.546606
  C      -1.242564      1.435597     18.339545
  C      -6.194983      0.005753     18.430166
  C       7.433272     -5.008571     18.566974
  C     -12.384181      3.576180     18.559483
  C     -12.382484      7.866206     18.570592
  C       1.238358     -7.151686     18.535992
  C       3.710621      5.721564     18.407410
  C      -9.904831     12.153724     18.553398
  C      -3.715689     14.302894     18.573601
  C       1.230437     10.011528     18.300035
  C      11.149632      1.430031     18.570064
  C       4.954104     -6.436503     18.512787
  C      -1.240391      0.004486     18.341818
  C       8.672360     -4.292952     18.582588
  C      11.150584     -0.000667     18.595034
  C       7.430560      6.433011     18.347041
  C      -6.192173     14.300464     18.560091
  C      -1.239389     -4.287472     18.502265
  C       2.470983      6.436015     18.366419
  C      -1.239628     -2.857352     18.442697
  C      -7.431956     -0.711298     18.449343
  C       3.715935     -7.153025     18.511411
  C       4.950652      6.433858     18.348981
  C     -12.384562      2.146507     18.510254
  C      -9.908053     -0.713213     18.453296
  C      -3.718996      0.006816     18.348188
  C     -11.146107      0.002358     18.464509
  C      11.147844      4.289368     18.464499
  C      -1.238985     -7.151142     18.546158
  C       2.469489      7.864864     18.282797
  C      -2.479824     -0.710293     18.348311
  C      -4.956710     -0.710031     18.377664
  C      -1.238561     14.301406     18.503822
  C       9.908450      6.433229     18.390629
  C      -4.954462     15.015810     18.505251
  C       1.239056     -8.582713     18.510490
  C      -2.478355     -2.141196     18.404405
  C      -2.477910     -5.003723     18.511420
  C      -2.477071     15.016487     18.496079
  C      -2.477718     -6.434853     18.530970
  C       1.236011     12.870007     18.379141
  C      11.148195      5.719009     18.423816
  C      -1.238332     -8.581965     18.527376
  C       2.470823     10.724406     18.280997
  C       4.950235      7.863929     18.312446
  C     -13.619198      5.721058     18.479332
  C     -13.620601      4.290827     18.476170
  C       6.193068     -7.151005     18.453923
  C       7.432581     -6.436385     18.478155
  C       3.710235      8.578985     18.280628
  C      12.387279      2.144300     18.490778
  C       0.000517     -9.297947     18.507092
  C      11.149373     -2.862028     18.543422
  C       7.429471      7.862559     18.350700
  C      -8.666545     14.296453     18.453587
  C      12.387079      3.574213     18.453331
  C      -7.431450     -2.141869     18.421921
  C      -3.716471     -2.857059     18.428987
  C       3.716085     -8.582474     18.456073
  C      -4.955129     -2.141057     18.402336
  C      -7.428797     15.012498     18.448434
  C      -9.907965     -2.143607     18.420558
  C      -3.716328     -4.287741     18.474664
  C       2.477343     -9.298122     18.461500
  C      12.387690     -0.715780     18.514920
  C       2.473440     12.154672     18.323081
  C     -12.384027     -0.713507     18.417779
  C       9.909689     -5.007222     18.500183
  C       3.710611     10.009086     18.283071
  C       6.189584      8.577845     18.340698
  C     -13.621313      1.431491     18.420433
  C      -6.192909     -2.857170     18.422693
  C       9.908062      7.863592     18.376652
  C      -0.000938     15.015428     18.434114
  C      -3.715970     -7.150440     18.499747
  C      -8.669425     -2.858367     18.415447
  C      -2.476777     -9.296987     18.490569
  C       1.237377     14.299948     18.402258
  C       8.668710      8.577820     18.378563
  C      12.386799     -2.145981     18.485021
  C      -4.954596     -5.003850     18.464030
  C      11.147984     -4.291420     18.478510
  C      -3.715421     -8.581049     18.476041
  C     -13.622221      0.001381     18.391797
  C       0.001463    -10.727880     18.457496
  C      12.386960      6.434159     18.381818
  C      -2.477415     16.444193     18.408936
  C     -11.145991     -2.859000     18.395455
  C      -4.954593     16.442558     18.385535
  C      -6.192874     -4.288133     18.434215
  C      -4.954238     -6.434622     18.466865
  C     -12.384346     -2.143598     18.385793
  C      13.624814      1.429127     18.426962
  C       4.954221     -9.296865     18.388735
  C       6.192675     -8.581282     18.387907
  C       4.950052     10.723295     18.336995
  C       6.189420     10.008277     18.364598
  C       8.669796     -7.151156     18.409684
  C      -2.475996    -10.727002     18.445785
  C     -14.857173      3.576033     18.380221
  C      13.625159      4.288846     18.373464
  C       2.478349    -10.727656     18.405854
  C      13.624285     -0.000822     18.431425
  C      11.147350      8.578527     18.376020
  C       3.713477     12.869133     18.338718
  C      -8.669276     -4.288759     18.399838
  C      -1.237159    -11.442714     18.433564
  C     -14.858943      2.146038     18.368298
  C       9.908436     -6.435622     18.413121
  C      -7.430805     -5.004022     18.411919
  C      -0.000548     16.444937     18.391266
  C       1.240007    -11.442977     18.408524
  C      12.386490      7.864214     18.358304
  C      -3.716201     17.158032     18.357735
  C      13.625231      5.719595     18.344475
  C      -7.429174     16.440136     18.337949
  C       8.668722     10.008184     18.395297
  C       2.475989     15.013907     18.368424
  C      -4.953194     -9.295686     18.416119
  C      -6.192060     -7.149867     18.418685
  C      -1.239172     17.159618     18.375279
  C       4.951713     12.153682     18.351805
  C     -11.145919     -4.289177     18.370082
  C       7.429279     10.723058     18.390947
  C      -9.907386     -5.004298     18.374616
  C      -6.191963     17.156979     18.323492
  C       3.714469     14.298691     18.354716
  C      -3.714174    -11.441389     18.394452
  C      -7.430389     -6.434410     18.394255
  C      -6.191544     -8.580096     18.390090
  C      13.622453     -2.859872     18.379317
  C      -4.952701    -10.725714     18.378341
  C      11.147187     10.008145     18.373885
  C      12.384032     -5.005012     18.376358
  C      14.862066      2.144015     18.348980
  C      -1.236270    -12.872238     18.377923
  C       3.716591    -11.442250     18.338635
  C       4.954752    -10.726698     18.330006
  C      14.863507      3.574079     18.334948
  C       9.907837     10.722919     18.388946
  C       1.238133     17.159488     18.363106
  C       3.721997    -21.451623     18.419388
  C       7.430845     -9.295898     18.324471
  C       2.476546     16.444146     18.359726
  C       4.961041    -19.308339     18.431857
  C       8.669102     -8.580268     18.330784
  C       1.241033    -12.872460     18.347091
  C      13.625184      8.578855     18.316580
  C       6.191194     12.868572     18.367054
  C      14.861062     -0.715095     18.348103
  C      -8.668378     -7.149624     18.353112
  C       7.430269     12.153517     18.382429
  C      -9.907016     -6.434430     18.347131
  C      -3.713670    -12.871311     18.354925
  C      13.621943     -4.289591     18.338373
  C       0.002494    -13.587464     18.340146
  C      -2.474895    -13.586874     18.351436
  C      14.863795      6.434088     18.294021
  C      -1.239210     18.589156     18.325218
  C      11.145427     -7.150050     18.334471
  C      -7.429415     -9.294970     18.336024
  C      -3.715856     18.587629     18.295602
  C       4.953311     15.013938     18.343425
  C      14.860442     -2.144865     18.327828
  C      -6.190710    -11.440461     18.325917
  C      12.386139     10.723147     18.343151
  C       2.482911    -23.595515     18.369564
  C       3.723023    -20.022590     18.364391
  C      12.383549     -6.434566     18.321268
  C       6.198859    -17.164742     18.401662
  C      -8.668028     -8.579723     18.323551
  C      13.625265     10.008806     18.312546
  C      14.864188      7.864037     18.284855
  C       9.908204     12.153288     18.369330
  C       1.238006     18.589417     18.333332
  C       6.191985     14.298786     18.346922
  C      -7.429280    -10.725137     18.308728
  C      -2.477660     19.303837     18.290790
  C       3.715104     17.159210     18.333094
  C       8.669383     12.868634     18.366737
  C       2.484105    -22.165940     18.343098
  C      -4.952140    -13.586108     18.321586
  C       3.715543     27.170911     18.342530
  C      -0.000616     19.304468     18.315354
  C      -6.192098     18.587202     18.268101
  C       3.717858    -12.872290     18.289447
  C       2.477865     29.316032     18.331663
  C       2.479623    -13.587622     18.295301
  C       4.960963    -17.879653     18.356419
  C      -6.190749    -12.870736     18.307934
  C      16.100547      1.429703     18.307542
  C      -2.474316    -15.016804     18.317215
  C       4.953739     16.444061     18.326423
  C      16.102253      4.289311     18.286543
  C       6.193084    -11.442044     18.278181
  C      16.099525     -0.000090     18.303908
  C      12.386065     12.153306     18.331831
  C       2.477244     27.885906     18.314195
  C       0.003417    -15.017123     18.289236
  C       4.953715     25.025486     18.338912
  C       7.431258    -10.726277     18.274232
  C      -4.954131     19.303150     18.265670
  C      11.146997     12.868313     18.341351
  C      16.103067      5.719280     18.273678
  C       3.715261     25.740679     18.324152
  C       2.476591     19.304511     18.315659
  C      -4.952073    -15.016413     18.314044
  C       3.715247     18.589311     18.315669
  C      -1.235366    -15.731973     18.290519
  C      -3.713206    -15.731648     18.311971
  C       9.906941     -9.295673     18.280766
  C       7.430802     15.013812     18.325276
  C       1.240757     31.460685     18.312030
  C       1.242877    -25.739827     18.317490
  C       8.669501     14.298609     18.331989
  C      11.145137     -8.580025     18.282482
  C      -0.000527     20.734472     18.285353
  C       1.239505     30.030688     18.301882
  C       4.953855     23.595362     18.317750
  C       1.244256    -24.310063     18.306192
  C       2.476962     25.025488     18.289129
  C       6.192525     22.880264     18.319789
  C       7.435208    -15.020068     18.340672
  C       2.476683     20.734655     18.298063
  C       6.192339     17.159093     18.301453
  C       1.238078     21.449803     18.283647
  C      11.146968     14.298411     18.319223
  C      -2.477625     20.734112     18.262340
  C       1.238831     27.170687     18.277296
  C       6.197552    -15.735650     18.323186
  C      -3.712942    -17.161848     18.307544
  C       2.476785     23.595239     18.284641
  C       3.715377     22.880085     18.298172
  C       1.238381     25.740523     18.268626
  C      -1.239119     21.449615     18.263414
  C       1.238187     22.880012     18.269420
  C       9.908225     15.013661     18.311588
  C       7.431008     16.443865     18.298577
  C       4.953884     19.304465     18.296956
  C      17.339803      2.145060     18.294011
  C       3.715338     21.449866     18.295490
  C       2.481236    -15.017798     18.255421
  C       2.485308    -19.308596     18.269616
  C       1.242440    -15.732517     18.253843
  C      17.341394      3.575027     18.290017
  C      -2.473798    -17.876703     18.282380
  C       6.192615     21.450085     18.299663
  C       4.956757    -13.588541     18.259949
  C      -1.234714    -17.161973     18.262350
  C       7.431357     20.734996     18.296365
  C       4.954022     20.734733     18.294479
  C       6.192552     18.589334     18.288705
  C      -0.000470     23.595169     18.251940
  C      -0.000398     25.025429     18.250367
  C       1.245603    -21.452012     18.268086
  C       9.908400     16.443945     18.293808
  C      -0.000035     27.885512     18.269573
  C       8.670000     18.589563     18.283710
  C      -2.473559    -19.306718     18.277309
  C       0.000545     29.315443     18.280997
  C       8.669759     17.159158     18.285374
  C       6.194791    -12.873103     18.258332
  C       7.431264     19.304712     18.283263
  C       3.723063    -17.164679     18.269314
  C      -1.239164     22.879945     18.249273
  C      -1.239126     27.170578     18.274910
  C      -1.239295     25.740564     18.258833
  C      -2.478117     25.025653     18.274546
  C      -3.716198     21.449693     18.256043
  C       1.245413    -20.022252     18.245439
  C      -4.954473     20.734092     18.256862
  C       2.483841    -17.878500     18.245633
  C      -2.477894     23.595395     18.258057
  C       3.720647    -15.734116     18.252469
  C       4.959212    -15.019608     18.263464
  C       0.004656    -17.877087     18.233887
  C       1.244028    -17.162781     18.230565
  C      -1.234236    -20.021497     18.249118
  C       0.004966    -23.595978     18.265336
  C       8.669689    -11.442813     18.255417
  C      -1.234270    -21.451481     18.253762
  C       0.005541    -22.166069     18.252113
  C       9.907463    -10.726636     18.257547
  C       7.433448    -13.589970     18.278349
  C      -3.716403     22.880204     18.268767
  C       0.005404    -19.307271     18.230096
  C       8.671094    -12.874076     18.278719
